  Page 1                                    Fri Apr 20 21:36:03 2018

  ******************************************************************
  *                           E P A N E T                          *
  *                   Hydraulic and Water Quality                  *
  *                   Analysis for Pipe Networks                   *
  *                         Version 2.00.12                        *
  ******************************************************************
  
   
      Input Data File ................... C:\Users\hc042\Documents\MATLAB\gui_app\result\damageNet_5.inp
      Number of Junctions................ 59
      Number of Reservoirs............... 5
      Number of Tanks ................... 0
      Number of Pipes ................... 78
      Number of Pumps ................... 0
      Number of Valves .................. 0
      Headloss Formula .................. Hazen-Williams
      Hydraulic Timestep ................ 1.00 hrs
      Hydraulic Accuracy ................ 0.001000
      Status Check Frequency ............ 2
      Maximum Trials Checked ............ 10
      Damping Limit Threshold ........... 0.000000
      Maximum Trials .................... 40
      Quality Analysis .................. None
      Specific Gravity .................. 1.00
      Relative Kinematic Viscosity ...... 1.00
      Relative Chemical Diffusivity ..... 1.00
      Demand Multiplier ................. 1.00
      Total Duration .................... 0.00 hrs
      Reporting Criteria:
         No Nodes
         No Links
   
  Analysis begun Fri Apr 20 21:36:03 2018

  WARNING: Negative pressures at 0:00:00 hrs.
  
   
  Node Results:
  ----------------------------------------------
                     Demand      Head  Pressure
  Node                  L/s         m         m
  ----------------------------------------------
  1                   40.00     26.09     16.85
  2                   82.00     17.32      9.30
  3                   56.00     21.69     11.47
  4                   69.00     16.46      6.44
  5                   99.00     18.75      7.73
  6                  233.00     14.71     -0.29
  7                  121.00      9.50     -2.50
  8                  266.00     10.88     -0.52
  9                  276.00      9.87     -0.63
  10                 205.00    -26.75    -38.67
  11                  27.00     18.46      5.54
  12                 174.00     11.78     -5.81
  13                 147.00      9.93     -2.06
  14                 151.00      9.86     -0.74
  15                  47.00     11.35      2.34
  16                  76.00     17.25      5.44
  17                 122.00      8.08     -6.40
  18                 123.00      9.17     -1.73
  19                 120.00      7.53     -2.46
  20                  59.00     11.29      0.69
  21                 116.00     11.24      1.93
  22                 286.00      9.86     -1.63
  23                 194.00     12.00     -5.99
  24                 100.00     10.13      0.13
  25                 138.00      6.85     -3.94
  26                  76.00      4.67     -8.62
  27                  83.00     11.49      2.48
  28                 220.00     12.34      1.93
  29                 168.00     11.96      0.76
  30                 117.00      9.70      0.20
  31                  14.00      4.63     -4.56
  32                 141.00      4.15    -16.32
  33                  96.00     18.67      9.06
  34                  85.00     14.59     -3.40
  35                  82.00     13.98     -4.81
  36                 123.00     13.39      1.69
  37                  86.00      6.49     -2.90
  38                 191.00      5.31     -3.78
  39                  47.00      4.43     -5.36
  40                 210.00      5.06     -6.93
  41                  80.00     15.70    -14.78
  42                 137.00     11.53     -0.47
  43                  72.00      7.00     -5.09
  44                  39.00      6.47     -8.52
  45                  38.00      5.98     -3.11
  46                  28.00      5.06     -4.53
  47                 408.00      8.16     -7.32
  48                  28.00      6.55    -12.23
  49                  94.00     16.78      7.07
  add_node-3-1      1792.41      8.62      0.60
  add_node-4-1       125.53     10.10      0.00
  add_node-12-1      -44.53     12.00     -0.00
  add_node-16-1      290.35     12.96      0.00
  add_node-28-1      -99.96     14.78     -0.00
  add_node-41-1     -556.07     20.55     -0.00
  add_node-51-1        8.89     10.13      0.00
  add_node-56-1     -147.32     12.04     -0.00
  add_node-77-1    -1291.54     17.93     -0.00
  add_node-78-1     -372.85     66.07     -0.00
  50               -4959.55     76.95      0.00  Reservoir
  53                   0.00     81.98      0.00  Reservoir
  52                   0.00     83.58     -0.00  Reservoir
  51                -409.26     74.31     -0.00  Reservoir
  add_node-22-1     -326.09     10.92      0.00  Reservoir
   
  Analysis ended Fri Apr 20 21:36:03 2018
